Version 4
SHEET 1 2252 1748
WIRE 784 272 656 272
WIRE 800 272 784 272
WIRE 944 272 944 256
WIRE 944 272 880 272
WIRE 544 288 464 288
WIRE 592 288 544 288
WIRE 784 288 784 272
WIRE 688 304 656 304
WIRE 944 304 944 272
WIRE 544 384 544 288
WIRE 688 384 688 304
WIRE 688 384 544 384
WIRE 944 416 944 368
WIRE 1264 448 1264 432
WIRE 128 480 128 368
WIRE 160 480 128 480
WIRE 320 480 240 480
WIRE 640 480 320 480
WIRE 768 496 704 496
WIRE 864 496 848 496
WIRE 896 496 864 496
WIRE 320 512 320 480
WIRE 320 512 288 512
WIRE 352 512 320 512
WIRE 640 512 544 512
WIRE 864 512 864 496
WIRE 288 528 288 512
WIRE 352 528 352 512
WIRE 544 608 544 512
WIRE 624 608 544 608
WIRE 768 608 768 496
WIRE 864 608 864 592
WIRE 288 624 288 608
WIRE 320 624 288 624
WIRE 352 624 352 592
WIRE 352 624 320 624
WIRE 320 640 320 624
WIRE 544 688 544 608
WIRE 592 688 544 688
WIRE 656 688 592 688
WIRE 816 688 736 688
WIRE 944 688 944 512
WIRE 944 688 816 688
WIRE 1360 688 944 688
WIRE 1936 688 1360 688
WIRE 592 720 592 688
WIRE 592 720 560 720
WIRE 624 720 592 720
WIRE 624 736 624 720
WIRE 560 752 560 720
WIRE 816 768 816 688
WIRE 560 832 560 816
WIRE 592 832 560 832
WIRE 624 832 624 816
WIRE 624 832 592 832
WIRE 1360 832 1360 688
WIRE 1936 832 1936 688
WIRE 592 848 592 832
WIRE 816 896 816 848
WIRE 816 896 768 896
WIRE 640 912 544 912
WIRE 704 912 640 912
WIRE 816 928 768 928
WIRE 1360 944 1360 912
WIRE 1936 944 1936 912
WIRE 640 1024 640 912
WIRE 704 1024 640 1024
WIRE 816 1024 816 928
WIRE 816 1024 784 1024
WIRE 1056 1024 1040 1024
WIRE 1184 1024 1136 1024
WIRE 1264 1024 1184 1024
WIRE 1312 1024 1264 1024
WIRE 1632 1024 1584 1024
WIRE 1760 1024 1712 1024
WIRE 1840 1024 1760 1024
WIRE 1888 1024 1840 1024
WIRE 816 1040 816 1024
WIRE 1264 1040 1264 1024
WIRE 1584 1040 1584 1024
WIRE 1840 1040 1840 1024
WIRE 1040 1056 1040 1024
WIRE 1184 1056 1184 1024
WIRE 1760 1056 1760 1024
WIRE 1760 1120 1760 1104
WIRE 1040 1152 1040 1136
WIRE 1184 1152 1184 1120
WIRE 1184 1152 1040 1152
WIRE 1264 1152 1264 1120
WIRE 1264 1152 1184 1152
WIRE 1360 1152 1360 1040
WIRE 1360 1152 1264 1152
WIRE 1584 1152 1584 1120
WIRE 1760 1152 1760 1120
WIRE 1760 1152 1584 1152
WIRE 1840 1152 1840 1120
WIRE 1840 1152 1760 1152
WIRE 1936 1152 1936 1040
WIRE 1936 1152 1840 1152
WIRE 1040 1168 1040 1152
WIRE 1760 1168 1760 1152
FLAG -80 512 Vcc
FLAG -80 592 0
FLAG 672 528 Vcc
FLAG 672 464 0
FLAG 128 592 0
FLAG 320 640 0
FLAG 864 608 0
FLAG 736 880 0
FLAG 736 944 Vcc
FLAG 1264 528 0
FLAG 592 848 0
FLAG 128 288 0
FLAG 816 1120 0
FLAG 544 912 i_adc_l
FLAG 1264 432 v_l
FLAG 944 256 v_l
FLAG 784 368 0
FLAG 464 288 v_adc_l
FLAG 1040 1168 0
FLAG 1760 1168 0
FLAG 624 256 0
FLAG 624 320 Vcc
DATAFLAG 448 480 ""
DATAFLAG 608 512 ""
DATAFLAG 1264 688 ""
SYMBOL voltage -80 496 R0
WINDOW 123 0 0 Left 0
WINDOW 39 0 0 Left 0
SYMATTR InstName V1
SYMATTR Value 9
SYMBOL res 864 480 R90
WINDOW 0 0 56 VBottom 2
WINDOW 3 32 56 VTop 2
SYMATTR InstName R19
SYMATTR Value 100
SYMBOL res 256 464 R90
WINDOW 0 0 56 VBottom 2
WINDOW 3 32 56 VTop 2
SYMATTR InstName R20
SYMATTR Value 39k2
SYMBOL res 304 624 R180
WINDOW 0 36 76 Left 2
WINDOW 3 36 40 Left 2
SYMATTR InstName R21
SYMATTR Value 1k
SYMBOL cap 336 528 R0
SYMATTR InstName C3
SYMATTR Value 100n
SYMBOL res 880 608 R180
WINDOW 0 -27 80 Left 2
WINDOW 3 -32 16 Left 2
SYMATTR InstName R25
SYMATTR Value 100k
SYMBOL res 720 592 R90
WINDOW 0 0 56 VBottom 2
WINDOW 3 32 56 VTop 2
SYMATTR InstName R23
SYMATTR Value 1k
SYMBOL cap 768 592 R90
WINDOW 0 0 32 VBottom 2
WINDOW 3 32 32 VTop 2
SYMATTR InstName C5
SYMATTR Value 10n
SYMBOL res 688 1040 R270
WINDOW 0 32 56 VTop 2
WINDOW 3 0 56 VBottom 2
SYMATTR InstName R24
SYMATTR Value 1k
SYMBOL voltage 1264 432 M0
WINDOW 123 0 0 Left 0
WINDOW 39 0 0 Left 0
SYMATTR InstName VL
SYMATTR Value 10
SYMBOL res 640 704 R270
WINDOW 0 32 56 VTop 2
WINDOW 3 0 56 VBottom 2
SYMATTR InstName R27
SYMATTR Value 19k1
SYMBOL cap 576 816 R180
WINDOW 0 28 46 Left 2
WINDOW 3 24 8 Left 2
SYMATTR InstName C4
SYMATTR Value 100n
SYMBOL voltage 128 384 M180
WINDOW 3 -530 57 Left 2
WINDOW 123 0 0 Left 0
WINDOW 39 0 0 Left 0
SYMATTR Value PULSE(0 5 90ms 10n 10n 10ms 12ms)
SYMATTR InstName V5
SYMBOL diode 928 304 R0
SYMATTR InstName D2
SYMATTR Value PDS1040
SYMBOL res 832 1136 R180
WINDOW 0 36 76 Left 2
WINDOW 3 36 40 Left 2
SYMATTR InstName R28
SYMATTR Value 1k
SYMBOL res 896 256 R90
WINDOW 0 0 56 VBottom 2
WINDOW 3 32 56 VTop 2
SYMATTR InstName R1
SYMATTR Value 100k
SYMBOL res 800 384 R180
WINDOW 0 36 76 Left 2
WINDOW 3 36 40 Left 2
SYMATTR InstName R2
SYMATTR Value 10k
SYMBOL res 832 864 R180
WINDOW 0 36 76 Left 2
WINDOW 3 36 40 Left 2
SYMATTR InstName R3
SYMATTR Value 1k
SYMBOL res 608 720 R0
SYMATTR InstName R4
SYMATTR Value 1k
SYMBOL OpAmps\\LMC6482 672 560 M180
SYMATTR InstName U2
SYMBOL nmos 1312 944 R0
SYMATTR InstName M3
SYMATTR Value BSC0906NS
SYMBOL res 1280 1136 R180
WINDOW 0 -27 80 Left 2
WINDOW 3 -32 16 Left 2
SYMATTR InstName R5
SYMATTR Value 100k
SYMBOL res 1856 1136 R180
WINDOW 0 -27 80 Left 2
WINDOW 3 -32 16 Left 2
SYMATTR InstName R6
SYMATTR Value 100k
SYMBOL res 1920 816 R0
SYMATTR InstName RL2
SYMATTR Value 5.1
SYMATTR SpiceLine pwr=2
SYMBOL res 1344 816 R0
SYMATTR InstName RL1
SYMATTR Value 0.5
SYMATTR SpiceLine pwr=20
SYMBOL res 1152 1008 R90
WINDOW 0 0 56 VBottom 2
WINDOW 3 32 56 VTop 2
SYMATTR InstName R7
SYMATTR Value 1k
SYMBOL cap 1200 1120 R180
WINDOW 0 28 46 Left 2
WINDOW 3 24 8 Left 2
SYMATTR InstName C1
SYMATTR Value 22n
SYMBOL cap 1776 1120 R180
WINDOW 0 28 46 Left 2
WINDOW 3 24 8 Left 2
SYMATTR InstName C2
SYMATTR Value 22n
SYMBOL res 1728 1008 R90
WINDOW 0 0 56 VBottom 2
WINDOW 3 32 56 VTop 2
SYMATTR InstName R8
SYMATTR Value 1k
SYMBOL nmos 1888 944 R0
SYMATTR InstName M2
SYMATTR Value BSC0906NS
SYMBOL voltage 128 496 M0
WINDOW 3 24 44 Invisible 2
WINDOW 123 0 0 Left 0
WINDOW 39 0 0 Left 0
SYMATTR Value PULSE(0 4.997 90m 10n 10n 20m 40m 1)
SYMATTR InstName V2
SYMBOL NMOS\\stp55nf06l 896 416 R0
SYMATTR InstName U3
SYMBOL voltage 1040 1040 R0
WINDOW 123 0 0 Left 0
WINDOW 39 0 0 Left 0
SYMATTR InstName V3
SYMATTR Value PULSE(0 3.3 90ms 10n 10n 10ms 12ms 1)
SYMBOL voltage 1584 1024 R0
WINDOW 123 0 0 Left 0
WINDOW 39 0 0 Left 0
SYMATTR InstName V4
SYMATTR Value PULSE(0 3.3 102ms 10n 10n 10ms 12ms 1)
SYMBOL OpAmps\\UniversalOpamp2 624 288 R180
SYMATTR InstName U5
SYMBOL OpAmps\\UniversalOpamp2 736 912 R180
SYMATTR InstName U1
TEXT -328 608 Left 2 !.tran 0 120m 90m
TEXT 600 1040 Left 2 ;Adjustable R
TEXT 696 216 Left 2 ;Adjustable R
TEXT 1536 632 Left 2 ;RL1 4 parallel 2 Ohm 0.5% 5 W\nRL2 5.1 Ohm 0.1% 2 W
TEXT 976 280 Left 2 ;Relay G5LE-14-DC9\n50 mA
