Version 4
SHEET 1 880 680
WIRE 448 96 448 -128
WIRE 176 128 128 128
WIRE 336 144 240 144
WIRE 176 160 128 160
WIRE 336 176 336 144
WIRE 400 176 336 176
WIRE 128 256 128 160
WIRE 448 256 448 192
WIRE 448 256 128 256
WIRE 448 352 448 336
FLAG -496 176 0
FLAG -768 176 0
FLAG -768 96 Vl
FLAG -496 96 v_dac
FLAG 128 128 v_dac
FLAG 448 352 0
FLAG 448 -128 Vl
FLAG -608 176 0
FLAG -608 96 Vcc
FLAG 208 112 0
FLAG 208 176 Vcc
SYMBOL voltage -496 80 R0
WINDOW 123 0 0 Left 0
WINDOW 39 0 0 Left 0
SYMATTR InstName V1
SYMATTR Value SINE(0 5 10)
SYMBOL voltage -768 80 R0
WINDOW 123 0 0 Left 0
WINDOW 39 0 0 Left 0
SYMATTR InstName V2
SYMATTR Value 10
SYMBOL voltage -608 80 R0
WINDOW 123 0 0 Left 0
WINDOW 39 0 0 Left 0
SYMATTR InstName V3
SYMATTR Value 9
SYMBOL res 432 240 R0
SYMATTR InstName R2
SYMATTR Value 1
SYMBOL OpAmps\\UniversalOpamp2 208 144 M180
SYMATTR InstName U1
SYMBOL NMOS\\stp55nf06l 400 96 R0
SYMATTR InstName U2
TEXT -322 376 Left 2 !.tran 5s
