Version 4
SHEET 1 1700 680
WIRE 240 -128 -176 -128
WIRE -176 -64 -176 -128
WIRE -176 -64 -224 -64
WIRE -64 -64 -176 -64
WIRE -64 -32 -64 -64
WIRE 96 -16 32 -16
WIRE 144 -16 96 -16
WIRE 240 -16 240 -128
WIRE 240 -16 224 -16
WIRE 48 16 32 16
WIRE -64 48 -64 32
WIRE 48 80 48 16
WIRE 336 80 48 80
WIRE 336 176 336 144
WIRE 336 176 224 176
WIRE 592 176 336 176
WIRE 720 176 592 176
WIRE 224 208 224 176
WIRE 336 208 336 176
WIRE 592 208 592 176
WIRE 720 208 720 176
WIRE -176 240 -176 -64
WIRE -144 240 -176 240
WIRE -32 240 -32 208
WIRE -32 240 -64 240
WIRE 48 240 48 80
WIRE 48 240 -32 240
WIRE -32 256 -32 240
WIRE 224 304 224 272
WIRE 336 304 336 272
WIRE 336 304 224 304
WIRE 384 304 336 304
WIRE 592 304 592 288
WIRE 592 304 384 304
WIRE 384 320 384 304
FLAG -352 208 0
FLAG -352 128 Vcc
FLAG -32 336 0
FLAG -32 128 Vcc
FLAG 384 320 0
FLAG 96 48 0
FLAG -224 -144 Vcc
FLAG -64 48 0
FLAG 0 32 0
FLAG 0 -32 Vcc
FLAG 720 272 0
SYMBOL voltage -352 112 R0
WINDOW 123 0 0 Left 0
WINDOW 39 0 0 Left 0
SYMATTR InstName V1
SYMATTR Value 5
SYMBOL res -48 112 R0
SYMATTR InstName R4
SYMATTR Value 100k
SYMBOL res -48 240 R0
SYMATTR InstName R5
SYMATTR Value 100k
SYMBOL res -48 224 R90
WINDOW 0 0 56 VBottom 2
WINDOW 3 32 56 VTop 2
SYMATTR InstName R6
SYMATTR Value 100k
SYMBOL cap 80 -16 R0
SYMATTR InstName C3
SYMATTR Value 10µ
SYMBOL res 128 0 R270
WINDOW 0 32 56 VTop 2
WINDOW 3 0 56 VBottom 2
SYMATTR InstName R7
SYMATTR Value 47k
SYMBOL cap 320 80 R0
SYMATTR InstName C4
SYMATTR Value 10µ
SYMBOL cap 320 208 R0
SYMATTR InstName C5
SYMATTR Value 1n
SYMBOL ind 576 192 R0
SYMATTR InstName L2
SYMATTR Value 82µ
SYMBOL res -208 -48 R180
WINDOW 0 36 76 Left 2
WINDOW 3 36 40 Left 2
SYMATTR InstName R8
SYMATTR Value 1k
SYMBOL OpAmps\\LM311 0 0 M0
SYMATTR InstName U1
SYMBOL cap 704 208 R0
SYMATTR InstName C_Cal
SYMATTR Value 1n
SYMBOL cap 208 208 R0
SYMATTR InstName C_Det
SYMATTR Value 1p
TEXT -386 408 Left 2 !.tran 0 1000us 10us uic
